
 OpenBabel08192514463D

 35 37  0  0  0  0  0  0  0  0999 V2000
   -3.0170   -0.8451    0.1296 C   0  0  0  0  0  0  0  0  0  0  0  0
   -2.5683   -1.8717   -0.7065 C   0  0  0  0  0  0  0  0  0  0  0  0
   -1.2747   -1.8675   -1.1736 C   0  0  0  0  0  0  0  0  0  0  0  0
   -2.1708    0.1799    0.4839 C   0  0  0  0  0  0  0  0  0  0  0  0
   -0.8260    0.2174    0.0394 C   0  0  0  0  0  0  0  0  0  0  0  0
   -2.6170    1.1624    1.3585 O   0  0  0  0  0  0  0  0  0  0  0  0
   -0.3862   -0.8401   -0.8126 C   0  0  0  0  0  0  0  0  0  0  0  0
    0.9563   -0.8568   -1.3084 C   0  0  0  0  0  0  0  0  0  0  0  0
    1.8436    0.1141   -0.9936 C   0  0  0  0  0  0  0  0  0  0  0  0
    0.1400    1.2303    0.3766 C   0  0  0  0  0  0  0  0  0  0  0  0
    1.4582    1.1882   -0.1367 C   0  0  0  0  0  0  0  0  0  0  0  0
   -0.1652    2.2656    1.2077 N   0  3  0  0  0  0  0  0  0  0  0  0
    0.6820    3.2367    1.5515 C   0  0  0  0  0  0  0  0  0  0  0  0
    1.9746    3.2355    1.0580 C   0  0  0  0  0  0  0  0  0  0  0  0
    2.3559    2.2082    0.2195 C   0  0  0  0  0  0  0  0  0  0  0  0
   -3.7626    1.8975    1.0084 C   0  0  0  0  0  0  0  0  0  0  0  0
   -4.1771    1.9183   -0.1331 O   0  0  0  0  0  0  0  0  0  0  0  0
   -4.2574    2.5561    2.0630 N   0  0  0  0  0  0  0  0  0  0  0  0
   -5.3611    3.4908    1.8623 C   0  0  0  0  0  0  0  0  0  0  0  0
   -3.7743    2.4327    3.4370 C   0  0  0  0  0  0  0  0  0  0  0  0
   -3.1128    1.5807    3.5389 H   0  0  0  0  0  0  0  0  0  0  0  0
   -4.6327    2.2954    4.0958 H   0  0  0  0  0  0  0  0  0  0  0  0
   -3.2472    3.3415    3.7359 H   0  0  0  0  0  0  0  0  0  0  0  0
   -5.5714    3.5885    0.8029 H   0  0  0  0  0  0  0  0  0  0  0  0
   -5.0875    4.4652    2.2708 H   0  0  0  0  0  0  0  0  0  0  0  0
   -6.2532    3.1312    2.3788 H   0  0  0  0  0  0  0  0  0  0  0  0
   -0.9197   -2.6576   -1.8222 H   0  0  0  0  0  0  0  0  0  0  0  0
   -4.0312   -0.8475    0.5037 H   0  0  0  0  0  0  0  0  0  0  0  0
   -3.2470   -2.6691   -0.9790 H   0  0  0  0  0  0  0  0  0  0  0  0
    1.2455   -1.6762   -1.9539 H   0  0  0  0  0  0  0  0  0  0  0  0
    2.8560    0.0980   -1.3751 H   0  0  0  0  0  0  0  0  0  0  0  0
    0.2962    3.9910    2.2211 H   0  0  0  0  0  0  0  0  0  0  0  0
    2.6561    4.0247    1.3378 H   0  0  0  0  0  0  0  0  0  0  0  0
    3.3627    2.1740   -0.1777 H   0  0  0  0  0  0  0  0  0  0  0  0
   -1.1056    2.2785    1.5929 H   0  0  0  0  0  0  0  0  0  0  0  0
  1  4  1  0  0  0  0
  1 28  1  0  0  0  0
  2  1  2  0  0  0  0
  3  7  2  0  0  0  0
  3  2  1  0  0  0  0
  4  6  1  0  0  0  0
  5 10  1  0  0  0  0
  5  4  2  0  0  0  0
  7  5  1  0  0  0  0
  8  9  2  0  0  0  0
  8  7  1  0  0  0  0
  9 11  1  0  0  0  0
 10 12  2  0  0  0  0
 11 15  2  0  0  0  0
 11 10  1  0  0  0  0
 12 13  1  0  0  0  0
 12 35  1  0  0  0  0
 13 32  1  0  0  0  0
 14 33  1  0  0  0  0
 14 13  2  0  0  0  0
 15 14  1  0  0  0  0
 16  6  1  0  0  0  0
 16 18  1  0  0  0  0
 17 16  2  0  0  0  0
 18 20  1  0  0  0  0
 19 18  1  0  0  0  0
 19 25  1  0  0  0  0
 19 26  1  0  0  0  0
 20 21  1  0  0  0  0
 20 23  1  0  0  0  0
 20 22  1  0  0  0  0
 24 19  1  0  0  0  0
 27  3  1  0  0  0  0
 29  2  1  0  0  0  0
 30  8  1  0  0  0  0
 31  9  1  0  0  0  0
 34 15  1  0  0  0  0
M  CHG  1  12   1
M  END
