
 OpenBabel08192514483D

 42 46  0  0  0  0  0  0  0  0999 V2000
   -6.5569   -1.5017   -0.0845 C   0  0  0  0  0  0  0  0  0  0  0  0
   -6.5586   -2.6595   -1.0674 C   0  0  0  0  0  0  0  0  0  0  0  0
   -5.5582   -3.7134   -0.6089 C   0  0  0  0  0  0  0  0  0  0  0  0
   -6.2941   -2.2928   -2.0629 H   0  0  0  0  0  0  0  0  0  0  0  0
   -7.5639   -3.0793   -1.1268 H   0  0  0  0  0  0  0  0  0  0  0  0
   -4.2040   -3.1012   -0.3370 C   0  0  0  0  0  0  0  0  0  0  0  0
   -5.4585   -4.5094   -1.3488 H   0  0  0  0  0  0  0  0  0  0  0  0
   -5.9342   -4.1834    0.3066 H   0  0  0  0  0  0  0  0  0  0  0  0
   -4.0993   -1.7197    0.0303 C   0  0  0  0  0  0  0  0  0  0  0  0
   -5.2189   -0.9335    0.0739 N   0  0  0  0  0  0  0  0  0  0  0  0
   -6.9438   -1.8341    0.8884 H   0  0  0  0  0  0  0  0  0  0  0  0
   -7.2095   -0.7011   -0.4346 H   0  0  0  0  0  0  0  0  0  0  0  0
   -5.1627    0.4110    0.6436 C   0  0  0  0  0  0  0  0  0  0  0  0
   -3.8675    1.1108    0.2710 C   0  0  0  0  0  0  0  0  0  0  0  0
   -5.2671    0.3632    1.7361 H   0  0  0  0  0  0  0  0  0  0  0  0
   -6.0203    0.9639    0.2597 H   0  0  0  0  0  0  0  0  0  0  0  0
   -2.6730    0.2823    0.7299 C   0  0  0  0  0  0  0  0  0  0  0  0
   -3.8449    2.1004    0.7295 H   0  0  0  0  0  0  0  0  0  0  0  0
   -3.8340    1.2494   -0.8128 H   0  0  0  0  0  0  0  0  0  0  0  0
   -2.8270   -1.1659    0.3305 C   0  0  0  0  0  0  0  0  0  0  0  0
   -2.5723    0.3539    1.8184 H   0  0  0  0  0  0  0  0  0  0  0  0
   -1.7494    0.6843    0.3125 H   0  0  0  0  0  0  0  0  0  0  0  0
   -3.0664   -3.8639   -0.4241 C   0  0  0  0  0  0  0  0  0  0  0  0
   -1.7211   -1.9937    0.2421 C   0  0  0  0  0  0  0  0  0  0  0  0
   -1.7914   -3.3414   -0.1389 C   0  0  0  0  0  0  0  0  0  0  0  0
   -0.5013   -1.4461    0.5506 O   0  0  0  0  0  0  0  0  0  0  0  0
    0.6907   -2.1437    0.4974 C   0  0  0  0  0  0  0  0  0  0  0  0
   -0.5903   -4.0827   -0.1999 C   0  0  0  0  0  0  0  0  0  0  0  0
    0.6296   -3.5371    0.1011 C   0  0  0  0  0  0  0  0  0  0  0  0
    1.6900   -1.5068    0.7819 O   0  0  0  0  0  0  0  0  0  0  0  0
    1.8795   -4.3176    0.0051 C   0  0  0  0  0  0  0  0  0  0  0  0
    2.9013   -4.2401    0.9564 C   0  0  0  0  0  0  0  0  0  0  0  0
    2.0804   -5.1985   -1.0651 C   0  0  0  0  0  0  0  0  0  0  0  0
    3.1610   -5.9659   -1.2158 N   0  0  0  0  0  0  0  0  0  0  0  0
    4.1184   -5.8802   -0.2870 C   0  0  0  0  0  0  0  0  0  0  0  0
    4.0304   -5.0309    0.8087 C   0  0  0  0  0  0  0  0  0  0  0  0
    1.3298   -5.2733   -1.8451 H   0  0  0  0  0  0  0  0  0  0  0  0
    4.8312   -4.9956    1.5357 H   0  0  0  0  0  0  0  0  0  0  0  0
    4.9888   -6.5120   -0.4272 H   0  0  0  0  0  0  0  0  0  0  0  0
    2.8065   -3.5768    1.8041 H   0  0  0  0  0  0  0  0  0  0  0  0
   -3.1460   -4.9058   -0.7137 H   0  0  0  0  0  0  0  0  0  0  0  0
   -0.6520   -5.1275   -0.4826 H   0  0  0  0  0  0  0  0  0  0  0  0
  1 10  1  0  0  0  0
  1 11  1  0  0  0  0
  2  3  1  0  0  0  0
  2  1  1  0  0  0  0
  3  6  1  0  0  0  0
  3  8  1  0  0  0  0
  4  2  1  0  0  0  0
  5  2  1  0  0  0  0
  6  9  1  0  0  0  0
  7  3  1  0  0  0  0
  9 10  1  0  0  0  0
  9 20  2  0  0  0  0
 10 13  1  0  0  0  0
 12  1  1  0  0  0  0
 13 15  1  0  0  0  0
 14 13  1  0  0  0  0
 14 18  1  0  0  0  0
 14 17  1  0  0  0  0
 16 13  1  0  0  0  0
 17 21  1  0  0  0  0
 19 14  1  0  0  0  0
 20 17  1  0  0  0  0
 22 17  1  0  0  0  0
 23  6  2  0  0  0  0
 23 25  1  0  0  0  0
 24 20  1  0  0  0  0
 24 26  1  0  0  0  0
 25 24  2  0  0  0  0
 27 26  1  0  0  0  0
 27 30  2  0  0  0  0
 28 25  1  0  0  0  0
 28 29  2  0  0  0  0
 29 27  1  0  0  0  0
 31 29  1  0  0  0  0
 31 32  2  0  0  0  0
 32 40  1  0  0  0  0
 33 31  1  0  0  0  0
 34 33  2  0  0  0  0
 34 35  1  0  0  0  0
 35 36  2  0  0  0  0
 36 32  1  0  0  0  0
 36 38  1  0  0  0  0
 37 33  1  0  0  0  0
 39 35  1  0  0  0  0
 41 23  1  0  0  0  0
 42 28  1  0  0  0  0
M  END
