
 OpenBabel08252511013D

 35 37  0  0  0  0  0  0  0  0999 V2000
   -3.0740   -0.6640   -0.0337 C   0  0  0  0  0  0  0  0  0  0  0  0
   -2.6596   -1.7392   -0.8081 C   0  0  0  0  0  0  0  0  0  0  0  0
   -1.3361   -1.8142   -1.1817 C   0  0  0  0  0  0  0  0  0  0  0  0
   -2.1704    0.3432    0.3572 C   0  0  0  0  0  0  0  0  0  0  0  0
   -0.7970    0.3031    0.0066 C   0  0  0  0  0  0  0  0  0  0  0  0
   -2.6042    1.3411    1.1613 O   0  0  0  0  0  0  0  0  0  0  0  0
   -0.3930   -0.8142   -0.7867 C   0  0  0  0  0  0  0  0  0  0  0  0
    0.9373   -0.9394   -1.1997 C   0  0  0  0  0  0  0  0  0  0  0  0
    1.8706    0.0114   -0.8358 C   0  0  0  0  0  0  0  0  0  0  0  0
    0.1860    1.2742    0.3674 C   0  0  0  0  0  0  0  0  0  0  0  0
    1.5206    1.1364   -0.0505 C   0  0  0  0  0  0  0  0  0  0  0  0
   -0.1244    2.3891    1.1319 N   0  3  0  0  0  0  0  0  0  0  0  0
    0.8138    3.3294    1.4827 C   0  0  0  0  0  0  0  0  0  0  0  0
    2.1143    3.2031    1.0827 C   0  0  0  0  0  0  0  0  0  0  0  0
    2.4985    2.1037    0.3048 C   0  0  0  0  0  0  0  0  0  0  0  0
   -3.8834    1.9174    0.9508 C   0  0  0  0  0  0  0  0  0  0  0  0
   -4.3992    1.8868   -0.1457 O   0  0  0  0  0  0  0  0  0  0  0  0
   -4.3322    2.4863    2.0670 N   0  0  0  0  0  0  0  0  0  0  0  0
   -5.5612    3.2728    2.0158 C   0  0  0  0  0  0  0  0  0  0  0  0
   -3.6573    2.4454    3.3628 C   0  0  0  0  0  0  0  0  0  0  0  0
   -2.8841    1.6866    3.3721 H   0  0  0  0  0  0  0  0  0  0  0  0
   -4.3968    2.2093    4.1280 H   0  0  0  0  0  0  0  0  0  0  0  0
   -3.2180    3.4198    3.5851 H   0  0  0  0  0  0  0  0  0  0  0  0
   -5.9517    3.2768    1.0042 H   0  0  0  0  0  0  0  0  0  0  0  0
   -5.3489    4.2955    2.3320 H   0  0  0  0  0  0  0  0  0  0  0  0
   -6.2984    2.8388    2.6928 H   0  0  0  0  0  0  0  0  0  0  0  0
   -0.9756   -2.6406   -1.7792 H   0  0  0  0  0  0  0  0  0  0  0  0
   -4.0971   -0.5979    0.3036 H   0  0  0  0  0  0  0  0  0  0  0  0
   -3.3642   -2.5056   -1.0960 H   0  0  0  0  0  0  0  0  0  0  0  0
    1.2274   -1.7873   -1.8047 H   0  0  0  0  0  0  0  0  0  0  0  0
    2.9002   -0.0941   -1.1524 H   0  0  0  0  0  0  0  0  0  0  0  0
    0.4460    4.1497    2.0789 H   0  0  0  0  0  0  0  0  0  0  0  0
    2.8281    3.9606    1.3727 H   0  0  0  0  0  0  0  0  0  0  0  0
    3.5154    1.9778   -0.0347 H   0  0  0  0  0  0  0  0  0  0  0  0
   -1.0702    2.5089    1.4503 H   0  0  0  0  0  0  0  0  0  0  0  0
  1 28  1  0  0  0  0
  1  4  2  0  0  0  0
  2  1  1  0  0  0  0
  3  2  2  0  0  0  0
  3  7  1  0  0  0  0
  4  6  1  0  0  0  0
  5  4  1  0  0  0  0
  5 10  1  0  0  0  0
  7  5  2  0  0  0  0
  8  9  2  0  0  0  0
  8  7  1  0  0  0  0
  9 11  1  0  0  0  0
 10 12  2  0  0  0  0
 11 15  2  0  0  0  0
 11 10  1  0  0  0  0
 12 35  1  0  0  0  0
 12 13  1  0  0  0  0
 13 32  1  0  0  0  0
 14 33  1  0  0  0  0
 14 13  2  0  0  0  0
 15 14  1  0  0  0  0
 16  6  1  0  0  0  0
 16 18  1  0  0  0  0
 17 16  2  0  0  0  0
 18 20  1  0  0  0  0
 19 18  1  0  0  0  0
 19 25  1  0  0  0  0
 19 26  1  0  0  0  0
 20 21  1  0  0  0  0
 20 23  1  0  0  0  0
 20 22  1  0  0  0  0
 24 19  1  0  0  0  0
 27  3  1  0  0  0  0
 29  2  1  0  0  0  0
 30  8  1  0  0  0  0
 31  9  1  0  0  0  0
 34 15  1  0  0  0  0
M  CHG  1  12   1
M  END
