
 OpenBabel08192514443D

 35 37  0  0  0  0  0  0  0  0999 V2000
   -3.0089   -0.8965    0.1621 C   0  0  0  0  0  0  0  0  0  0  0  0
   -2.5540   -1.9084   -0.6876 C   0  0  0  0  0  0  0  0  0  0  0  0
   -1.2686   -1.8752   -1.1758 C   0  0  0  0  0  0  0  0  0  0  0  0
   -2.1728    0.1353    0.5142 C   0  0  0  0  0  0  0  0  0  0  0  0
   -0.8372    0.1964    0.0575 C   0  0  0  0  0  0  0  0  0  0  0  0
   -2.6284    1.1113    1.3882 O   0  0  0  0  0  0  0  0  0  0  0  0
   -0.3940   -0.8363   -0.8185 C   0  0  0  0  0  0  0  0  0  0  0  0
    0.9351   -0.8120   -1.3452 C   0  0  0  0  0  0  0  0  0  0  0  0
    1.8034    0.1773   -1.0364 C   0  0  0  0  0  0  0  0  0  0  0  0
    0.1132    1.2156    0.4042 C   0  0  0  0  0  0  0  0  0  0  0  0
    1.4154    1.2198   -0.1443 C   0  0  0  0  0  0  0  0  0  0  0  0
   -0.1917    2.2076    1.2843 N   0  3  0  0  0  0  0  0  0  0  0  0
    0.6422    3.1845    1.6382 C   0  0  0  0  0  0  0  0  0  0  0  0
    1.9169    3.2361    1.1029 C   0  0  0  0  0  0  0  0  0  0  0  0
    2.2979    2.2494    0.2179 C   0  0  0  0  0  0  0  0  0  0  0  0
   -3.7423    1.8689    0.9984 C   0  0  0  0  0  0  0  0  0  0  0  0
   -4.1265    1.8869   -0.1538 O   0  0  0  0  0  0  0  0  0  0  0  0
   -4.2495    2.5384    2.0385 N   0  0  0  0  0  0  0  0  0  0  0  0
   -5.3036    3.5198    1.8088 C   0  0  0  0  0  0  0  0  0  0  0  0
   -3.7339    2.4559    3.4027 C   0  0  0  0  0  0  0  0  0  0  0  0
   -3.2229    1.5133    3.5632 H   0  0  0  0  0  0  0  0  0  0  0  0
   -4.5770    2.5227    4.0895 H   0  0  0  0  0  0  0  0  0  0  0  0
   -3.0485    3.2821    3.6072 H   0  0  0  0  0  0  0  0  0  0  0  0
   -5.5789    3.5201    0.7598 H   0  0  0  0  0  0  0  0  0  0  0  0
   -4.9500    4.5131    2.0935 H   0  0  0  0  0  0  0  0  0  0  0  0
   -6.1749    3.2689    2.4157 H   0  0  0  0  0  0  0  0  0  0  0  0
   -0.9104   -2.6496   -1.8410 H   0  0  0  0  0  0  0  0  0  0  0  0
   -4.0191   -0.9115    0.5463 H   0  0  0  0  0  0  0  0  0  0  0  0
   -3.2218   -2.7151   -0.9586 H   0  0  0  0  0  0  0  0  0  0  0  0
    1.2286   -1.6125   -2.0118 H   0  0  0  0  0  0  0  0  0  0  0  0
    2.8047    0.1969   -1.4450 H   0  0  0  0  0  0  0  0  0  0  0  0
    0.2602    3.9018    2.3489 H   0  0  0  0  0  0  0  0  0  0  0  0
    2.5862    4.0327    1.3903 H   0  0  0  0  0  0  0  0  0  0  0  0
    3.2926    2.2532   -0.2092 H   0  0  0  0  0  0  0  0  0  0  0  0
   -1.1201    2.1801    1.6967 H   0  0  0  0  0  0  0  0  0  0  0  0
  1  4  1  0  0  0  0
  1 28  1  0  0  0  0
  2  1  2  0  0  0  0
  3  7  2  0  0  0  0
  3  2  1  0  0  0  0
  4  6  1  0  0  0  0
  5 10  1  0  0  0  0
  5  4  2  0  0  0  0
  7  5  1  0  0  0  0
  8  9  2  0  0  0  0
  8  7  1  0  0  0  0
  9 11  1  0  0  0  0
 10 12  2  0  0  0  0
 11 15  2  0  0  0  0
 11 10  1  0  0  0  0
 12 13  1  0  0  0  0
 12 35  1  0  0  0  0
 13 32  1  0  0  0  0
 14 33  1  0  0  0  0
 14 13  2  0  0  0  0
 15 14  1  0  0  0  0
 16  6  1  0  0  0  0
 16 18  1  0  0  0  0
 17 16  2  0  0  0  0
 18 20  1  0  0  0  0
 19 18  1  0  0  0  0
 19 25  1  0  0  0  0
 19 26  1  0  0  0  0
 20 21  1  0  0  0  0
 20 23  1  0  0  0  0
 20 22  1  0  0  0  0
 24 19  1  0  0  0  0
 27  3  1  0  0  0  0
 29  2  1  0  0  0  0
 30  8  1  0  0  0  0
 31  9  1  0  0  0  0
 34 15  1  0  0  0  0
M  CHG  1  12   1
M  END
