
 OpenBabel08252511013D

 42 46  0  0  0  0  0  0  0  0999 V2000
   -6.5542   -1.4837   -0.1392 C   0  0  0  0  0  0  0  0  0  0  0  0
   -6.5275   -2.5869   -1.1808 C   0  0  0  0  0  0  0  0  0  0  0  0
   -5.5609   -3.6749   -0.7352 C   0  0  0  0  0  0  0  0  0  0  0  0
   -6.2129   -2.1704   -2.1411 H   0  0  0  0  0  0  0  0  0  0  0  0
   -7.5352   -2.9846   -1.3028 H   0  0  0  0  0  0  0  0  0  0  0  0
   -4.2168   -3.0912   -0.3950 C   0  0  0  0  0  0  0  0  0  0  0  0
   -5.4431   -4.4383   -1.5055 H   0  0  0  0  0  0  0  0  0  0  0  0
   -5.9707   -4.1785    0.1479 H   0  0  0  0  0  0  0  0  0  0  0  0
   -4.1109   -1.7318    0.0308 C   0  0  0  0  0  0  0  0  0  0  0  0
   -5.2241   -0.9427    0.1067 N   0  0  0  0  0  0  0  0  0  0  0  0
   -6.9643   -1.8700    0.8061 H   0  0  0  0  0  0  0  0  0  0  0  0
   -7.1886   -0.6555   -0.4537 H   0  0  0  0  0  0  0  0  0  0  0  0
   -5.1647    0.3856    0.6997 C   0  0  0  0  0  0  0  0  0  0  0  0
   -3.8630    1.0829    0.3531 C   0  0  0  0  0  0  0  0  0  0  0  0
   -5.2670    0.2980    1.7918 H   0  0  0  0  0  0  0  0  0  0  0  0
   -6.0242    0.9456    0.3345 H   0  0  0  0  0  0  0  0  0  0  0  0
   -2.6864    0.2366    0.8169 C   0  0  0  0  0  0  0  0  0  0  0  0
   -3.8428    2.0632    0.8298 H   0  0  0  0  0  0  0  0  0  0  0  0
   -3.8154    1.2354   -0.7279 H   0  0  0  0  0  0  0  0  0  0  0  0
   -2.8354   -1.1915    0.3730 C   0  0  0  0  0  0  0  0  0  0  0  0
   -2.6207    0.2650    1.9107 H   0  0  0  0  0  0  0  0  0  0  0  0
   -1.7461    0.6404    0.4432 H   0  0  0  0  0  0  0  0  0  0  0  0
   -3.0772   -3.8554   -0.4808 C   0  0  0  0  0  0  0  0  0  0  0  0
   -1.7326   -2.0216    0.2919 C   0  0  0  0  0  0  0  0  0  0  0  0
   -1.7998   -3.3570   -0.1392 C   0  0  0  0  0  0  0  0  0  0  0  0
   -0.5278   -1.4746    0.6575 O   0  0  0  0  0  0  0  0  0  0  0  0
    0.6752   -2.1762    0.5875 C   0  0  0  0  0  0  0  0  0  0  0  0
   -0.6066   -4.1199   -0.2035 C   0  0  0  0  0  0  0  0  0  0  0  0
    0.6357   -3.5528    0.1466 C   0  0  0  0  0  0  0  0  0  0  0  0
    1.6557   -1.5127    0.8997 O   0  0  0  0  0  0  0  0  0  0  0  0
    1.8625   -4.3102    0.0465 C   0  0  0  0  0  0  0  0  0  0  0  0
    3.0644   -3.9920    0.7198 C   0  0  0  0  0  0  0  0  0  0  0  0
    1.9051   -5.4852   -0.7530 C   0  0  0  0  0  0  0  0  0  0  0  0
    2.9710   -6.2628   -0.9003 N   0  0  0  0  0  0  0  0  0  0  0  0
    4.0910   -5.9324   -0.2427 C   0  0  0  0  0  0  0  0  0  0  0  0
    4.1700   -4.8045    0.5736 C   0  0  0  0  0  0  0  0  0  0  0  0
    1.0328   -5.7775   -1.3239 H   0  0  0  0  0  0  0  0  0  0  0  0
    5.0912   -4.5773    1.0946 H   0  0  0  0  0  0  0  0  0  0  0  0
    4.9446   -6.5883   -0.3713 H   0  0  0  0  0  0  0  0  0  0  0  0
    3.1073   -3.1243    1.3569 H   0  0  0  0  0  0  0  0  0  0  0  0
   -3.1555   -4.8827   -0.8161 H   0  0  0  0  0  0  0  0  0  0  0  0
   -0.6807   -5.1607   -0.4764 H   0  0  0  0  0  0  0  0  0  0  0  0
  1 10  1  0  0  0  0
  1 11  1  0  0  0  0
  2  3  1  0  0  0  0
  2  1  1  0  0  0  0
  3  6  1  0  0  0  0
  3  8  1  0  0  0  0
  4  2  1  0  0  0  0
  5  2  1  0  0  0  0
  6  9  1  0  0  0  0
  7  3  1  0  0  0  0
  9 10  1  0  0  0  0
  9 20  2  0  0  0  0
 10 13  1  0  0  0  0
 12  1  1  0  0  0  0
 13 15  1  0  0  0  0
 14 13  1  0  0  0  0
 14 17  1  0  0  0  0
 14 18  1  0  0  0  0
 16 13  1  0  0  0  0
 17 21  1  0  0  0  0
 19 14  1  0  0  0  0
 20 17  1  0  0  0  0
 22 17  1  0  0  0  0
 23  6  2  0  0  0  0
 23 25  1  0  0  0  0
 24 20  1  0  0  0  0
 24 26  1  0  0  0  0
 25 24  2  0  0  0  0
 27 26  1  0  0  0  0
 27 30  2  0  0  0  0
 28 25  1  0  0  0  0
 28 29  2  0  0  0  0
 29 27  1  0  0  0  0
 31 29  1  0  0  0  0
 31 32  2  0  0  0  0
 32 40  1  0  0  0  0
 33 31  1  0  0  0  0
 34 33  2  0  0  0  0
 34 35  1  0  0  0  0
 35 36  2  0  0  0  0
 36 32  1  0  0  0  0
 36 38  1  0  0  0  0
 37 33  1  0  0  0  0
 39 35  1  0  0  0  0
 41 23  1  0  0  0  0
 42 28  1  0  0  0  0
M  END
