
 OpenBabel08192514453D

 42 46  0  0  0  0  0  0  0  0999 V2000
   -6.5489   -1.5076   -0.0764 C   0  0  0  0  0  0  0  0  0  0  0  0
   -6.5473   -2.6501   -1.0748 C   0  0  0  0  0  0  0  0  0  0  0  0
   -5.5501   -3.7079   -0.6240 C   0  0  0  0  0  0  0  0  0  0  0  0
   -6.2738   -2.2686   -2.0622 H   0  0  0  0  0  0  0  0  0  0  0  0
   -7.5522   -3.0683   -1.1465 H   0  0  0  0  0  0  0  0  0  0  0  0
   -4.1983   -3.0971   -0.3515 C   0  0  0  0  0  0  0  0  0  0  0  0
   -5.4504   -4.4995   -1.3683 H   0  0  0  0  0  0  0  0  0  0  0  0
   -5.9249   -4.1803    0.2905 H   0  0  0  0  0  0  0  0  0  0  0  0
   -4.0950   -1.7206    0.0252 C   0  0  0  0  0  0  0  0  0  0  0  0
   -5.2141   -0.9385    0.0819 N   0  0  0  0  0  0  0  0  0  0  0  0
   -6.9283   -1.8558    0.8937 H   0  0  0  0  0  0  0  0  0  0  0  0
   -7.2052   -0.7043   -0.4125 H   0  0  0  0  0  0  0  0  0  0  0  0
   -5.1565    0.3947    0.6710 C   0  0  0  0  0  0  0  0  0  0  0  0
   -3.8709    1.1024    0.2865 C   0  0  0  0  0  0  0  0  0  0  0  0
   -5.2414    0.3281    1.7641 H   0  0  0  0  0  0  0  0  0  0  0  0
   -6.0228    0.9485    0.3094 H   0  0  0  0  0  0  0  0  0  0  0  0
   -2.6707    0.2767    0.7300 C   0  0  0  0  0  0  0  0  0  0  0  0
   -3.8469    2.0908    0.7470 H   0  0  0  0  0  0  0  0  0  0  0  0
   -3.8505    1.2404   -0.7976 H   0  0  0  0  0  0  0  0  0  0  0  0
   -2.8248   -1.1663    0.3220 C   0  0  0  0  0  0  0  0  0  0  0  0
   -2.5625    0.3394    1.8181 H   0  0  0  0  0  0  0  0  0  0  0  0
   -1.7511    0.6825    0.3078 H   0  0  0  0  0  0  0  0  0  0  0  0
   -3.0614   -3.8576   -0.4456 C   0  0  0  0  0  0  0  0  0  0  0  0
   -1.7189   -1.9894    0.2253 C   0  0  0  0  0  0  0  0  0  0  0  0
   -1.7885   -3.3345   -0.1602 C   0  0  0  0  0  0  0  0  0  0  0  0
   -0.5013   -1.4387    0.5313 O   0  0  0  0  0  0  0  0  0  0  0  0
    0.6892   -2.1351    0.4739 C   0  0  0  0  0  0  0  0  0  0  0  0
   -0.5900   -4.0756   -0.2192 C   0  0  0  0  0  0  0  0  0  0  0  0
    0.6272   -3.5283    0.0831 C   0  0  0  0  0  0  0  0  0  0  0  0
    1.6904   -1.4982    0.7517 O   0  0  0  0  0  0  0  0  0  0  0  0
    1.8717   -4.3109    0.0003 C   0  0  0  0  0  0  0  0  0  0  0  0
    2.9003   -4.2033    0.9393 C   0  0  0  0  0  0  0  0  0  0  0  0
    2.0569   -5.2300   -1.0387 C   0  0  0  0  0  0  0  0  0  0  0  0
    3.1302   -6.0103   -1.1697 N   0  0  0  0  0  0  0  0  0  0  0  0
    4.0956   -5.8960   -0.2523 C   0  0  0  0  0  0  0  0  0  0  0  0
    4.0228   -5.0056    0.8111 C   0  0  0  0  0  0  0  0  0  0  0  0
    1.2988   -5.3268   -1.8086 H   0  0  0  0  0  0  0  0  0  0  0  0
    4.8305   -4.9487    1.5288 H   0  0  0  0  0  0  0  0  0  0  0  0
    4.9608   -6.5380   -0.3756 H   0  0  0  0  0  0  0  0  0  0  0  0
    2.8145   -3.5080    1.7613 H   0  0  0  0  0  0  0  0  0  0  0  0
   -3.1400   -4.8977   -0.7405 H   0  0  0  0  0  0  0  0  0  0  0  0
   -0.6508   -5.1208   -0.4987 H   0  0  0  0  0  0  0  0  0  0  0  0
  1 10  1  0  0  0  0
  1 11  1  0  0  0  0
  2  3  1  0  0  0  0
  2  1  1  0  0  0  0
  3  6  1  0  0  0  0
  3  8  1  0  0  0  0
  4  2  1  0  0  0  0
  5  2  1  0  0  0  0
  6  9  1  0  0  0  0
  7  3  1  0  0  0  0
  9 10  1  0  0  0  0
  9 20  2  0  0  0  0
 10 13  1  0  0  0  0
 12  1  1  0  0  0  0
 13 15  1  0  0  0  0
 14 13  1  0  0  0  0
 14 17  1  0  0  0  0
 14 18  1  0  0  0  0
 16 13  1  0  0  0  0
 17 21  1  0  0  0  0
 19 14  1  0  0  0  0
 20 17  1  0  0  0  0
 22 17  1  0  0  0  0
 23  6  2  0  0  0  0
 23 25  1  0  0  0  0
 24 20  1  0  0  0  0
 24 26  1  0  0  0  0
 25 24  2  0  0  0  0
 27 26  1  0  0  0  0
 27 30  2  0  0  0  0
 28 25  1  0  0  0  0
 28 29  2  0  0  0  0
 29 27  1  0  0  0  0
 31 29  1  0  0  0  0
 31 32  2  0  0  0  0
 32 40  1  0  0  0  0
 33 31  1  0  0  0  0
 34 33  2  0  0  0  0
 34 35  1  0  0  0  0
 35 36  2  0  0  0  0
 36 32  1  0  0  0  0
 36 38  1  0  0  0  0
 37 33  1  0  0  0  0
 39 35  1  0  0  0  0
 41 23  1  0  0  0  0
 42 28  1  0  0  0  0
M  END
